Test for simple circuit with subcircuit inside subcircuit
vin 1 0 PWL(0 0 100u 0 300u 5)
r1 1 2 10
c1 2 0 1u
x1 2 3 rlc
rl 3 0 100
.subckt rlc 1 2
rin 1 3 1
c1 3 2 10u
x2 3 2 lres
* l1 3 2 100u
* r1 3 2 10k
.ends
.subckt lres 1 2
l10 1 2 100u
r10 1 2 10k
.ends
.tran 1u 1m
.end
